
     RDKit          3D

  4  3  0  0  0  0  0  0  0  0999 V2000
   -0.5981    0.2669   -0.0016 C   0  0  0  0  0  0  0  0  0  0  0  0
    0.5981    0.1182    0.0016 C   0  0  0  0  0  0  0  0  0  0  0  0
   -1.6515    0.3978   -0.0044 H   0  0  0  0  0  0  0  0  0  0  0  0
    1.6515   -0.0127    0.0044 H   0  0  0  0  0  0  0  0  0  0  0  0
  1  2  3  0
  1  3  1  0
  2  4  1  0
M  END

